*
* bjts.lib
* 

* The parameter values are made up and physically nonsensical.

*
.MODEL PNP1 PNP(  
+     IS=1.111E-15 
+     NF=2.222E-14 
+     ISE=3.333E-13 
+     NE=4.444E-12 
+     BF=5.555E-11 
+     IKF=6.666E-10 
+     VAF=7.777E-09 
+     NR=8.888E-08 
+     ISC=9.999E-07 
+     NC=0.000E-06 
+     BR=1.111E-05 
+     IKR=2.222E-04 
+     VAR=3.333E-03 
+     RB=4.444E-02  
+     IRB=5.555E-01 
+     RBM=6.666E-00    
+     RE=7.777E+01 
+     RC=8.888E+02
+     XTB=9.999E+03  
+     EG=0.000E+04 
+     XTI=1.111E+05 
+     CJE=2.222E+06 
+     VJE=3.333E+07 
+     MJE=4.444E+08 
+     TF=5.555E+09 
+     XTF=6.666E+10 
+     VTF=7.777E+11   
+     ITF=8.888E+12 
+     PTF=9.999E+13  
+     CJC=0.000E+14 
+     VJC=1.111E+15 
+     MJC=2.2222   
+     XCJC=3.3333 
+     TR=4.4444
+     CJS=5.5555 
+     VJS=6.6666 
+     MJS=7.7777
+     FC=8.8888 ) 
* 

*
.MODEL NPN1 NPN(  
+     IS=1.111E-15 
+     NF=2.222E-14 
+     ISE=3.333E-13 
+     NE=4.444E-12 
+     BF=5.555E-11 
+     IKF=6.666E-10 
+     VAF=7.777E-09 
+     NR=8.888E-08 
+     ISC=9.999E-07 
+     NC=0.000E-06 
+     BR=1.111E-05 
+     IKR=2.222E-04 
+     VAR=3.333E-03 
+     RB=4.444E-02  
+     IRB=5.555E-01 
+     RBM=6.666E-00    
+     RE=7.777E+01 
+     RC=8.888E+02
+     XTB=9.999E+03  
+     EG=0.000E+04 
+     XTI=1.111E+05 
+     CJE=2.222E+06 
+     VJE=3.333E+07 
+     MJE=4.444E+08 
+     TF=5.555E+09 
+     XTF=6.666E+10 
+     VTF=7.777E+11   
+     ITF=8.888E+12 
+     PTF=9.999E+13  
+     CJC=0.000E+14 
+     VJC=1.111E+15 
+     MJC=2.2222   
+     XCJC=3.3333 
+     TR=4.4444
+     CJS=5.5555 
+     VJS=6.6666 
+     MJS=7.7777
+     FC=8.8888 ) 
* 


